
**** 10/15/18 13:56:22 ************** PSpice Lite (Mar 2000) *****************

 ** Profile: "SCHEMATIC1-exe1sim"  [ W:\jkjs\exe1-SCHEMATIC1-exe1sim.sim ] 


 ****     CIRCUIT DESCRIPTION


******************************************************************************




** Creating circuit file "exe1-SCHEMATIC1-exe1sim.sim.cir" 
** WARNING: THIS AUTOMATICALLY GENERATED FILE MAY BE OVERWRITTEN BY SUBSEQUENT SIMULATIONS

*Libraries: 
* Local Libraries :
* From [PSPICE NETLIST] section of C:\Program Files\OrcadLite\PSpice\PSpice.ini file:
.lib "nom.lib" 

*Analysis directives: 
.TRAN  0 1.04 1.0 
.PROBE V(*) I(*) W(*) D(*) NOISE(*) 
.INC ".\exe1-SCHEMATIC1.net" 



**** INCLUDING exe1-SCHEMATIC1.net ****
* source EXE1
R_R15         N048961 N04953  0.1  
L_L1         N048961 0  0.3mH  
V_V5         N04953 0  
+SIN 0 10 200 0 0 0

**** RESUMING exe1-SCHEMATIC1-exe1sim.sim.cir ****
.END

**** 10/15/18 13:56:22 ************** PSpice Lite (Mar 2000) *****************

 ** Profile: "SCHEMATIC1-exe1sim"  [ W:\jkjs\exe1-SCHEMATIC1-exe1sim.sim ] 


 ****     INITIAL TRANSIENT SOLUTION       TEMPERATURE =   27.000 DEG C


******************************************************************************



 NODE   VOLTAGE     NODE   VOLTAGE     NODE   VOLTAGE     NODE   VOLTAGE


(N04953)    0.0000 (N048961)    0.0000                   




    VOLTAGE SOURCE CURRENTS
    NAME         CURRENT

    V_V5         0.000E+00

    TOTAL POWER DISSIPATION   0.00E+00  WATTS



          JOB CONCLUDED

          TOTAL JOB TIME             .03
