
**** 10/15/18 14:33:37 ************** PSpice Lite (Mar 2000) *****************

 ** Profile: "SCHEMATIC1-exe2sim"  [ w:\jkjs\exe2-SCHEMATIC1-exe2sim.sim ] 


 ****     CIRCUIT DESCRIPTION


******************************************************************************




** Creating circuit file "exe2-SCHEMATIC1-exe2sim.sim.cir" 
** WARNING: THIS AUTOMATICALLY GENERATED FILE MAY BE OVERWRITTEN BY SUBSEQUENT SIMULATIONS

*Libraries: 
* Local Libraries :
* From [PSPICE NETLIST] section of C:\Program Files\OrcadLite\PSpice\PSpice.ini file:
.lib "nom.lib" 

*Analysis directives: 
.TRAN  0 1.04 1.0 
.PROBE V(*) I(*) W(*) D(*) NOISE(*) 
.INC ".\exe2-SCHEMATIC1.net" 



**** INCLUDING exe2-SCHEMATIC1.net ****
* source EXE2
V_V1         N00094 0  
+SIN 0 10 100 0 0 0
R_R1         N000371 N00094  0.1  
C_C1         0 N000371  4.5mF   

**** RESUMING exe2-SCHEMATIC1-exe2sim.sim.cir ****
.END

**** 10/15/18 14:33:37 ************** PSpice Lite (Mar 2000) *****************

 ** Profile: "SCHEMATIC1-exe2sim"  [ w:\jkjs\exe2-SCHEMATIC1-exe2sim.sim ] 


 ****     INITIAL TRANSIENT SOLUTION       TEMPERATURE =   27.000 DEG C


******************************************************************************



 NODE   VOLTAGE     NODE   VOLTAGE     NODE   VOLTAGE     NODE   VOLTAGE


(N00094)    0.0000 (N000371)    0.0000                   




    VOLTAGE SOURCE CURRENTS
    NAME         CURRENT

    V_V1         0.000E+00

    TOTAL POWER DISSIPATION   0.00E+00  WATTS



          JOB CONCLUDED

          TOTAL JOB TIME             .03
