
**** 11/12/18 16:04:41 ************** PSpice Lite (Mar 2000) *****************

 ** Profile: "SCHEMATIC1-exe3sim3"  [ W:\jkjs\exe3-SCHEMATIC1-exe3sim3.sim ] 


 ****     CIRCUIT DESCRIPTION


******************************************************************************




** Creating circuit file "exe3-SCHEMATIC1-exe3sim3.sim.cir" 
** WARNING: THIS AUTOMATICALLY GENERATED FILE MAY BE OVERWRITTEN BY SUBSEQUENT SIMULATIONS

*Libraries: 
* Local Libraries :
* From [PSPICE NETLIST] section of C:\Program Files\OrcadLite\PSpice\PSpice.ini file:
.lib "nom.lib" 

*Analysis directives: 
.AC DEC 100 10 200
.PROBE V(*) I(*) W(*) D(*) NOISE(*) 
.INC ".\exe3-SCHEMATIC1.net" 



**** INCLUDING exe3-SCHEMATIC1.net ****
* source EXE3
C_C1         0 N00158  2u   
L_L1         N00158 N00131  2  
R_R1         N00131 N00097  140  
V_V3         N00097 0 DC 0Vdc AC 100 

**** RESUMING exe3-SCHEMATIC1-exe3sim3.sim.cir ****
.END

**** 11/12/18 16:04:41 ************** PSpice Lite (Mar 2000) *****************

 ** Profile: "SCHEMATIC1-exe3sim3"  [ W:\jkjs\exe3-SCHEMATIC1-exe3sim3.sim ] 


 ****     SMALL SIGNAL BIAS SOLUTION       TEMPERATURE =   27.000 DEG C


******************************************************************************



 NODE   VOLTAGE     NODE   VOLTAGE     NODE   VOLTAGE     NODE   VOLTAGE


(N00097)    0.0000 (N00131)    0.0000 (N00158)    0.0000 




    VOLTAGE SOURCE CURRENTS
    NAME         CURRENT

    V_V3         0.000E+00

    TOTAL POWER DISSIPATION   0.00E+00  WATTS



          JOB CONCLUDED

          TOTAL JOB TIME             .03
